[TITLE]


[JUNCTIONS]
;ID              	Elev        	Demand      	Pattern         
 9               	1200        	7.547099108 	                	;
 10              	1202        	12.39491305 	                	;
 11              	1203        	16.91589961 	                	;
 12              	1205        	24.05672978 	                	;
 13              	1203        	12.42739862 	                	;
 14              	1203        	24.21256544 	                	;
 15              	1199        	52.19039759 	                	;
 16              	1195        	37.30169431 	                	;
 17              	1194        	5.145394528 	                	;
 18              	1189        	8.187160528 	                	;
 19              	1190        	3.221060389 	                	;
 20              	1194        	4.506095157 	                	;
 21              	1195        	0.533771369 	                	;
 22              	1194        	1.28023631  	                	;
 23              	1183        	11.0596093  	                	;
 24              	1174        	11.21536873 	                	;
 25              	1167        	7.44694081  	                	;
 26              	1169        	12.9480308  	                	;
 27              	1170        	4.252767218 	                	;
 28              	1175        	12.00193502 	                	;
 29              	1179        	10.31226841 	                	;
 30              	1177        	7.905384206 	                	;
 31              	1182        	24.87639006 	                	;
 32              	1189        	38.34714892 	                	;
 33              	1190        	24.85201712 	                	;
 34              	1198        	53.40714963 	                	;
 35              	1198        	31.32285293 	                	;
 36              	1197        	6.781136076 	                	;
 37              	1203        	28.29567293 	                	;
 38              	1204        	22.02172624 	                	;
 39              	1201        	16.55049312 	                	;
 40              	1195        	34.87885324 	                	;
 41              	1188        	15.63223555 	                	;
 42              	1190        	21.24570877 	                	;
 43              	1187        	11.753177   	                	;
 44              	1185        	5.537802082 	                	;
 45              	1179        	1.554586263 	                	;
 46              	1185        	1.270906018 	                	;
 47              	1185        	17.09271878 	                	;
 48              	1190        	12.22890989 	                	;
 49              	1198        	8.888040193 	                	;
 50              	1183        	20.73749069 	                	;
 51              	1178        	6.385148605 	                	;
 52              	1179        	5.261395355 	                	;
 53              	1182        	2.049741534 	                	;
 54              	1179        	0.949866259 	                	;
 55              	1168        	9.541125142 	                	;
 56              	1166        	1.939415073 	                	;
 57              	1167        	3.612287254 	                	;
 58              	1166        	4.564933637 	                	;
 59              	1165        	1.617347098 	                	;
 60              	1165        	0.291220728 	                	;
 61              	1162        	1.395208969 	                	;
 62              	1163        	2.344046914 	                	;
 63              	1164        	3.492135388 	                	;
 64              	1165        	0.903328877 	                	;
 65              	1165        	3.83613915  	                	;
 66              	1165        	17.30788726 	                	;
 67              	1162        	8.102235314 	                	;
 68              	1159        	5.420468321 	                	;
 69              	1156        	6.939523228 	                	;
 70              	1154        	6.252239171 	                	;
 71              	1153        	2.975958302 	                	;
 73              	1144        	3.617123703 	                	;
 74              	1143        	0.673916856 	                	;
 75              	1143        	3.719909825 	                	;
 76              	1142        	0.190491191 	                	;
 77              	1142        	4.204325659 	                	;
 78              	1146        	10.01457322 	                	;
 79              	1146        	0.895712229 	                	;
 80              	1154        	3.959223372 	                	;
 81              	1158        	6.388119316 	                	;
 82              	1161        	1.631932928 	                	;

[RESERVOIRS]
;ID              	Head        	Pattern         
 1               	1209        	                	;
 2               	1200.5      	                	;
 3               	1208.5      	                	;
 4               	1200.5      	                	;
 5               	1190.5      	                	;
 6               	1183        	                	;
 7               	1168.5      	                	;

[TANKS]
;ID              	Elevation   	InitLevel   	MinLevel    	MaxLevel    	Diameter    	MinVol      	VolCurve
 8               	1157        	8           	2           	16          	500         	0           	                	;

[PIPES]
;ID              	Node1           	Node2           	Length      	Diameter    	Roughness   	MinorLoss   	Status
 2               	9               	10              	735         	160         	140         	0           	Open  	;
 3               	10              	11              	476.2       	900         	100         	0           	Open  	;
 4               	11              	12              	946.9       	800         	100         	0           	Open  	;
 5               	9               	22              	525.5       	200         	140         	0           	Open  	;
 6               	22              	21              	241         	300         	100         	0           	Open  	;
 8               	21              	20              	413.9       	600         	100         	0           	Open  	;
 9               	20              	10              	695.7       	900         	100         	0           	Open  	;
 10              	11              	17              	736         	200         	140         	0           	Open  	;
 11              	12              	13              	492.35      	800         	100         	0           	Open  	;
 12              	13              	14              	161.2       	800         	100         	0           	Open  	;
 13              	20              	19              	391.5       	600         	100         	0           	Open  	;
 14              	19              	18              	630.7       	600         	100         	0           	Open  	;
 15              	18              	17              	382.5       	700         	100         	0           	Open  	;
 16              	18              	23              	529.2       	400         	100         	0           	Open  	;
 17              	23              	24              	956.8       	400         	100         	0           	Open  	;
 18              	24              	25              	665.4       	400         	100         	0           	Open  	;
 19              	24              	26              	1133.5      	400         	100         	0           	Open  	;
 20              	26              	27              	173.7       	500         	100         	0           	Open  	;
 21              	27              	28              	504.6       	500         	100         	0           	Open  	;
 22              	28              	29              	636.6       	300         	100         	0           	Open  	;
 23              	29              	23              	806.2       	300         	100         	0           	Open  	;
 24              	28              	30              	163.5       	700         	100         	0           	Open  	;
 26              	30              	31              	427         	300         	100         	0           	Open  	;
 27              	31              	50              	767.2       	200         	140         	0           	Open  	;
 28              	31              	32              	643.8       	300         	100         	0           	Open  	;
 29              	32              	18              	770.8       	200         	100         	0           	Open  	;
 30              	32              	33              	802.3       	200         	140         	0           	Open  	;
 31              	32              	16              	398.5       	300         	100         	0           	Open  	;
 32              	16              	34              	752.5       	400         	100         	0           	Open  	;
 33              	16              	17              	601         	500         	100         	0           	Open  	;
 34              	16              	15              	404.8       	300         	100         	0           	Open  	;
 35              	15              	14              	856         	300         	100         	0           	Open  	;
 36              	14              	34              	534.1       	400         	100         	0           	Open  	;
 37              	34              	33              	545         	400         	100         	0           	Open  	;
 38              	33              	50              	505.7       	700         	100         	0           	Open  	;
 39              	51              	50              	557.2       	700         	100         	0           	Open  	;
 40              	51              	28              	650.7       	700         	100         	0           	Open  	;
 41              	51              	52              	459         	400         	100         	0           	Open  	;
 42              	52              	54              	265.1       	400         	100         	0           	Open  	;
 43              	54              	53              	283.83      	160         	140         	0           	Open  	;
 44              	53              	44              	234.9       	250         	100         	0           	Open  	;
 45              	44              	43              	221.5       	160         	140         	0           	Open  	;
 46              	43              	42              	247.5       	160         	140         	0           	Open  	;
 47              	42              	41              	519.26      	200         	140         	0           	Open  	;
 48              	41              	47              	723.8       	500         	100         	0           	Open  	;
 50              	47              	46              	214         	500         	100         	0           	Open  	;
 51              	46              	48              	435.2       	500         	100         	0           	Open  	;
 52              	48              	49              	745.2       	500         	100         	0           	Open  	;
 53              	49              	39              	827.6       	500         	100         	0           	Open  	;
 54              	39              	40              	625.7       	500         	100         	0           	Open  	;
 55              	40              	41              	625.3       	500         	100         	0           	Open  	;
 56              	40              	36              	599         	160         	140         	0           	Open  	;
 57              	39              	38              	684.9       	200         	140         	0           	Open  	;
 58              	38              	36              	614.5       	300         	100         	0           	Open  	;
 59              	36              	42              	635.5       	200         	100         	0           	Open  	;
 60              	36              	35              	168.3       	250         	120         	0           	Open  	;
 62              	35              	34              	553.3       	300         	100         	0           	Open  	;
 63              	38              	37              	454.2       	200         	140         	0           	Open  	;
 65              	37              	14              	254.2       	300         	100         	0           	Open  	;
 66              	44              	45              	1390.32     	250         	100         	0           	Open  	;
 67              	45              	46              	473.2       	400         	100         	0           	Open  	;
 68              	54              	55              	1143.92     	500         	100         	0           	Open  	;
 69              	55              	56              	348.3       	250         	100         	0           	Open  	;
 70              	56              	57              	253.71      	160         	140         	0           	Open  	;
 71              	57              	58              	186.5       	160         	140         	0           	Open  	;
 72              	58              	59              	240.58      	160         	140         	0           	Open  	;
 73              	59              	61              	398.6       	200         	140         	0           	Open  	;
 74              	61              	62              	85.94       	200         	140         	0           	Open  	;
 75              	62              	63              	138.08      	200         	140         	0           	Open  	;
 76              	59              	60              	44.2        	600         	100         	0           	Open  	;
 77              	60              	55              	298.7       	500         	100         	0           	Open  	;
 79              	60              	64              	58.4        	200         	140         	0           	Open  	;
 80              	64              	65              	60.71       	160         	140         	0           	Open  	;
 81              	65              	66              	348.56      	160         	140         	0           	Open  	;
 82              	65              	67              	383.22      	160         	140         	0           	Open  	;
 83              	67              	68              	294.39      	160         	140         	0           	Open  	;
 84              	68              	69              	355.1       	160         	140         	0           	Open  	;
 85              	69              	70              	306.55      	200         	140         	0           	Open  	;
 86              	70              	71              	198.5       	200         	140         	0           	Open  	;
 88              	71              	73              	1505.29     	250         	100         	0           	Open  	;
 89              	73              	74              	126         	250         	100         	0           	Open  	;
 90              	74              	8               	488.16      	200         	140         	0           	Open  	;
 91              	8               	75              	32.8        	160         	140         	0           	Open  	;
 92              	8               	76              	73.85       	200         	140         	0           	Open  	;
 93              	76              	77              	111.75      	160         	140         	0           	Open  	;
 94              	77              	78              	423.05      	110         	140         	0           	Open  	;
 95              	77              	79              	563.81      	110         	140         	0           	Open  	;
 96              	79              	80              	989.5       	110         	140         	0           	Open  	;
 97              	80              	70              	161         	110         	140         	0           	Open  	;
 98              	80              	81              	616.12      	110         	140         	0           	Open  	;
 99              	81              	82              	275.7       	200         	140         	0           	Open  	;
 100             	82              	64              	378.2       	200         	140         	0           	Open  	;
 101             	82              	67              	145.8       	200         	140         	0           	Open  	;
 102             	81              	68              	104.46      	110         	140         	0           	Open  	;

[PUMPS]
;ID              	Node1           	Node2           	Parameters
 1               	1               	10              	HEAD 1	;
 7               	2               	21              	HEAD 2	;
 64              	3               	37              	HEAD 1	;
 61              	4               	35              	HEAD 4	;
 25              	6               	30              	HEAD 6	;
 49              	5               	47              	HEAD 1	;
 78              	7               	60              	HEAD 7	;

[VALVES]
;ID              	Node1           	Node2           	Diameter    	Type	Setting     	MinorLoss   

[TAGS]

[DEMANDS]
;Junction        	Demand      	Pattern         	Category

[STATUS]
;ID              	Status/Setting

[PATTERNS]
;ID              	Multipliers

[CURVES]
;ID              	X-Value     	Y-Value
;PUMP: PUMP: PUMP: PUMP: PUMP: PUMP: PUMP: PUMP: PUMP: 
 1               	0           	65          
 1               	110         	52          
 1               	190         	33          
;PUMP: PUMP: PUMP: PUMP: PUMP: PUMP: PUMP: 
 2               	0           	40          
 2               	130         	37          
 2               	190         	33          
;PUMP: PUMP: PUMP: PUMP: PUMP: PUMP: PUMP: 
 4               	0           	40          
 4               	60          	38          
 4               	90          	35          
;PUMP: PUMP: PUMP: PUMP: PUMP: PUMP: PUMP: 
 7               	0           	90          
 7               	40          	82          
 7               	95          	65          
;PUMP: PUMP: PUMP: PUMP: PUMP: PUMP: PUMP: 
 6               	0           	57          
 6               	210         	50          
 6               	350         	41          

[CONTROLS]







[RULES]







[ENERGY]
 Global Efficiency  	75
 Global Price       	0
 Demand Charge      	0

[EMITTERS]
;Junction        	Coefficient

[QUALITY]
;Node            	InitQual

[SOURCES]
;Node            	Type        	Quality     	Pattern

[REACTIONS]
;Type     	Pipe/Tank       	Coefficient


[REACTIONS]
 Order Bulk            	1
 Order Tank            	1
 Order Wall            	1
 Global Bulk           	0
 Global Wall           	0
 Limiting Potential    	0
 Roughness Correlation 	0

[MIXING]
;Tank            	Model

[TIMES]
 Duration           	0:00 
 Hydraulic Timestep 	1:00 
 Quality Timestep   	0:05 
 Pattern Timestep   	1:00 
 Pattern Start      	0:00 
 Report Timestep    	1:00 
 Report Start       	0:00 
 Start ClockTime    	12 am
 Statistic          	NONE

[REPORT]
 Status             	No
 Summary            	No
 Page               	0

[OPTIONS]
 Units              	LPS
 Headloss           	H-W
 Specific Gravity   	1
 Viscosity          	1
 Trials             	40
 Accuracy           	0.001
 CHECKFREQ          	2
 MAXCHECK           	10
 DAMPLIMIT          	0
 Unbalanced         	Continue 10
 Pattern            	1
 Demand Multiplier  	1.0
 Emitter Exponent   	0.5
 Quality            	None mg/L
 Diffusivity        	1
 Tolerance          	0.01

[COORDINATES]
;Node            	X-Coord         	Y-Coord
 9               	-4481.60        	7271.20         
 10              	-3765.60        	7118.50         
 11              	-3323.70        	6975.70         
 12              	-2400.80        	6827.40         
 13              	-2142.50        	6573.40         
 14              	-2184.00        	6417.20         
 15              	-3039.90        	6441.80         
 16              	-3083.70        	6050.80         
 17              	-3610.60        	6299.00         
 18              	-3787.00        	5990.70         
 19              	-4391.00        	6222.30         
 20              	-4162.10        	6547.40         
 21              	-4525.00        	6733.90         
 22              	-4747.60        	6835.70         
 23              	-3988.90        	5503.50         
 24              	-4342.10        	4645.80         
 25              	-4587.30        	4041.70         
 26              	-3529.20        	3871.90         
 27              	-3416.70        	4001.00         
 28              	-3387.80        	4498.10         
 29              	-3682.80        	4939.80         
 30              	-3382.30        	4660.10         
 31              	-3355.60        	5085.80         
 32              	-3258.30        	5687.80         
 33              	-2478.00        	5397.00         
 34              	-2307.00        	5924.10         
 35              	-1798.20        	5833.00         
 36              	-1637.20        	5796.50         
 37              	-1929.20        	6400.50         
 38              	-1480.10        	6390.20         
 39              	-838.60         	6148.40         
 40              	-1074.30        	5566.70         
 41              	-1305.70        	4982.90         
 42              	-1792.50        	5169.20         
 43              	-1861.30        	4926.70         
 44              	-1908.40        	4713.80         
 45              	-603.10         	4189.50         
 46              	-439.00         	4626.60         
 47              	-638.40         	4703.90         
 48              	-330.40         	5047.50         
 49              	-150.60         	5777.20         
 50              	-2593.90        	4902.10         
 51              	-2735.40        	4356.60         
 52              	-2298.30        	4282.40         
 53              	-1970.10        	4486.80         
 54              	-2042.10        	4212.00         
 55              	-2342.80        	3107.50         
 56              	-2672.50        	3142.20         
 57              	-2828.20        	3010.00         
 58              	-2665.40        	2921.90         
 59              	-2433.80        	2843.50         
 60              	-2414.70        	2809.20         
 61              	-2523.20        	2471.60         
 62              	-2605.30        	2490.70         
 63              	-2571.30        	2624.50         
 64              	-2426.40        	2760.90         
 65              	-2368.20        	2745.50         
 66              	-2038.80        	2712.80         
 67              	-2374.90        	2365.20         
 68              	-2486.60        	2101.10         
 69              	-2464.20        	1807.40         
 70              	-2499.70        	1515.40         
 71              	-2300.20        	1488.60         
 73              	-2070.60        	91.30           
 74              	-2069.70        	-34.30          
 75              	-2522.70        	13.10           
 76              	-2628.40        	26.40           
 77              	-2613.70        	135.70          
 78              	-2635.30        	554.90          
 79              	-2785.70        	571.00          
 80              	-2655.90        	1552.50         
 81              	-2587.40        	2126.40         
 82              	-2516.80        	2392.80         
 1               	-3844.50        	7419.70         
 2               	-4485.30        	6776.20         
 3               	-1922.20        	6458.70         
 4               	-1821.80        	5764.70         
 5               	-606.60         	4771.90         
 6               	-3038.25        	4571.00         
 7               	-1728.89        	2780.61         
 8               	-2555.80        	15.90           

[VERTICES]
;Link            	X-Coord         	Y-Coord

[LABELS]
;X-Coord           Y-Coord          Label & Anchor Node

[BACKDROP]
 DIMENSIONS     	0.00            	0.00            	10000.00        	10000.00        
 UNITS          	None
 FILE           	
 OFFSET         	0.00            	0.00            

[END]
