[TITLE]


[JUNCTIONS]
;ID              	Elev        	Demand      	Pattern         
 2               	15.0         	0.0          	                	;
 3               	14.0         	24.0        	                	;
 4               	14.0         	0.0          	                	;
 5               	14.0         	19.2          	                	;
 6               	14.0         	0.0           	                	;
 7               	14.0         	0.0       	                	    ;
 8               	14.0         	17.6 	                	        ;
 9               	14.0         	20.8 	                          	;
 10              	14.0         	19.2       	                     	;
 11              	14.0         	0.0    	                     	;
 12              	14.0         	0.0 	                	        ;
 13              	14.0         	0.0                				;
 14              	14.0         	0.0             					;
 15              	14.0         	19.2          	  	              	;
 16              	14.0         	0.0       	                		;
 17              	14.0         	24.0    	                		;
 18              	15.0         	24.0  	                			;	
 19              	15.0         	19.2            				 	;
 20              	15.0         	34.1           	                	;
 21              	15.0         	0.0      	            	    	;
 22              	15.5         	20.8   	              			  	;
 23              	15.5         	0.0 	                			;
 24              	15.0         	16.0             					;
 25              	15.5         	16.0          						;
 26              	15.5         	0.0          	                	;
 27              	15.5         	0.0       	                		;
 28              	15.5         	0.0    	                		;
 29              	15.5         	24.0 	                			;
 30              	15.5         	0.0        	                	;
 31              	15.5         	19.2     	                		;
 32              	15.5         	19.2  	                			;
 33                 15.5             16.0
 


[RESERVOIRS]
;ID              	Head        	Pattern         
 1               	58.89           	                	;

[TANKS]
;ID              	Elevation   	InitLevel   	MinLevel    	MaxLevel    	Diameter    	MinVol      	VolCurve

[PIPES]
;ID              	Node1           	Node2           	Length      	Diameter    	Roughness   	MinorLoss   	Status
 1               	1               	2               	2463.0    		1000      	100         	0           	Open  	;
 2               	2               	3               	100.0    		1000  		100         	0           	Open  	;
 3               	3               	4               	328.0    		1000        100      	    0           	Open  	;
 4               	4               	5               	80.0    		1000  	    100         	0           	Open  	;
 5               	5               	6               	149.3    		1000     	100         	0           	Open  	;
 6               	6               	7               	67.0  	   	     1000     	100         	0           	Open  	;
 7               	7               	8               	184.3    		1000       	100         	0           	Open  	;
 8               	3               	8               	288.0    		1000       	100         	0           	Open  	;
 9               	8               	9              	100.0    		1000       	100         	0           	Open  	;
 10              	9              	10              	341.65    		1000       	100         	0           	Open  	;
 11              	5              	10              	152.5    		1000       	100         	0           	Open  	;
 12              	10              	11              	70.0    		1000       	100         	0           	Open  	;
 13              	11              	12              	172.0    		1000       	100         	0           	Open  	;
 14              	12              	13              	109.0    		1000       	100         	0           	Open  	;
 15              	13              	14              	104.7   		1000       	100         	0           	Open  	;
 16              	9              	14              	155.0  	     	 1000      	100         	0           	Open  	;
 17              	14              	15              	123.5    		1000     	100         	0           	Open  	;
 18              	15              	16              	98.4    		1000     	100         	0           	Open  	;
 19              	16              	17               	164.6    		1000     	100         	0           	Open  	;
 20              	11               	17              	127.6    		1000      	100         	0           	Open  	;
 21              	15              	21              	225.5    		1000       	100         	0           	Open  	;
 22              	21              	20              	198.0    		1000     	100         	0           	Open  	;
 23              	16              	19              	357.9    		1000     	100         	0           	Open  	;
 24              	19              	20              	134.2    		1000      	100         	0           	Open  	;
 25              	19              	18              	163.4    		1000 		100         	0           	Open  	;
 26              	17              	18              	309.2    		1000     	100         	0           	Open  	;
 27              	18              	24              	92.7    		1000     	100         	0           	Open  	;
 28              	24              	23              	84.9    		1000     	100         	0           	Open  	;
 29              	23              	22              	226.3    		1000     	100         	0           	Open  	;
 30              	20              	22              	100.0    		1000     	100         	0           	Open  	;
 31              	22              	28              	217.0    		1000     	100         	0           	Open  	;
 32              	27              	28              	101.0    		1000     	100         	0           	Open  	;
 33              	23              	27              	156.5      		 1000        100         	0           	Open  	;
 34              	27              	26              	185.0      		 1000      	100         	0           	Open  	;
 35              	26              	25              	145.8      		 1000     	100         	0           	Open  	; 
 36              	24              	25              	230.0      		 1000      	100         	0           	Open  	;                                                                            
 37              	28              	29              	262.6      		1000 		100         	0           	Open  	;[PUMPS]                                                                     
 38              	26              	30              	109.9      		1000     	100         	0           	Open  	;;ID              	Node1           	Node2           	Parameters
 39              	29              	30              	114.9      		1000     	100         	0           	Open  	;
 40              	29              	32              	181.9      		1000     	100         	0           	Open  	;[VALVES]
 41              	32              	31              	120.0      		1000     	100         	0           	Open  	;;ID              	Node1           	Node2           	Diameter    	Type	Setting     	MinorLoss   
 42              	30              	31              	257.4      		1000     	100         	0           	Open  	;
 43              	31              	33              	184.0      		1000     	100         	0           	Open  	;[TAGS]
 44              	25              	13              	370.6      		1000     	100         	0           	Open  	;

[STATUS]
;ID              	Status/Setting

[PATTERNS]
;ID              	Multipliers

[CURVES]
;ID              	X-Value     	Y-Value

[CONTROLS]

[RULES]

[ENERGY]
 Global Efficiency  	75
 Global Price       	0
 Demand Charge      	0

[EMITTERS]
;Junction        	Coefficient

[QUALITY]
;Node            	InitQual

[SOURCES]
;Node            	Type        	Quality     	Pattern

[REACTIONS]
;Type     	Pipe/Tank       	Coefficient


[REACTIONS]
 Order Bulk            	1
 Order Tank            	1
 Order Wall            	1
 Global Bulk           	0
 Global Wall           	0
 Limiting Potential    	0
 Roughness Correlation 	0

[MIXING]
;Tank            	Model

[TIMES]
 Duration           	0
 Hydraulic Timestep 	1:00
 Quality Timestep   	0:05
 Pattern Timestep   	1:00
 Pattern Start      	0:00
 Report Timestep    	1:00
 Report Start       	0:00
 Start ClockTime    	12 am
 Statistic          	None

[REPORT]
 Status             	No
 Summary            	No
 Page               	0

[OPTIONS]
 Units              	LPS
 Headloss           	H-W
 Specific Gravity   	1
 Viscosity          	1
 Trials             	40
 Accuracy           	0.001
 CHECKFREQ          	2
 MAXCHECK           	10
 DAMPLIMIT          	0
 Unbalanced         	Continue
 Pattern            	1
 Demand Multiplier  	1.0
 Emitter Exponent   	0.5
 Quality            	None mg/L
 Diffusivity        	1
 Tolerance          	0.01

[COORDINATES]
;Node            	X-Coord         	Y-Coord
        

[VERTICES]
;Link            	X-Coord         	Y-Coord

[LABELS]
;X-Coord           Y-Coord          Label & Anchor Node

[BACKDROP]
 DIMENSIONS     	0.00            	0.00            	10000.00        	10000.00        
 UNITS          	None
 FILE           	
 OFFSET         	0.00            	0.00            

[END]
